AMOSTRA/CAP/Chaves.dss
! ==========================================================
! CHAVES — geradas de UNSEMT (Line com Switch=Y)
! ==========================================================
! 95 chave(s) omitida(s): os dois PACs fora da rede de MT deste alimentador, o que criaria ilha flutuante — ex.: 3195790, 3205417, 3107093
New Line.3073872 Phases=1 Bus1=16114-11487918.1 Bus2=16114-11487918c.1 Switch=Y r1=1e-4 x1=1e-4 r0=1e-4 x0=1e-4 normamps=9999
New Line.2081109 Phases=1 Bus1=11920-6488772.2 Bus2=11920-6488772c.2 Switch=Y r1=1e-4 x1=1e-4 r0=1e-4 x0=1e-4 normamps=9999
New Line.2081173 Phases=1 Bus1=11920-6489946.1 Bus2=11920-6489946c.1 Switch=Y r1=1e-4 x1=1e-4 r0=1e-4 x0=1e-4 normamps=9999
New Line.3130780 Phases=1 Bus1=26842-6486753.1 Bus2=26842-6486753c.1 Switch=Y r1=1e-4 x1=1e-4 r0=1e-4 x0=1e-4 normamps=9999
New Line.2080690 Phases=3 Bus1=26842-6482661.1.2.3 Bus2=26842-6482661c.1.2.3 Switch=Y r1=1e-4 x1=1e-4 r0=1e-4 x0=1e-4 normamps=9999
New Line.2081186 Phases=3 Bus1=26842-6489629.1.2.3 Bus2=26842-6489629c.1.2.3 Switch=Y r1=1e-4 x1=1e-4 r0=1e-4 x0=1e-4 normamps=9999
New Line.2080971 Phases=1 Bus1=11920-6486391.3 Bus2=11920-6486391c.3 Switch=Y r1=1e-4 x1=1e-4 r0=1e-4 x0=1e-4 normamps=9999
New Line.2080533 Phases=3 Bus1=11919-6477880.1.2.3 Bus2=11919-6477880c.1.2.3 Switch=Y r1=1e-4 x1=1e-4 r0=1e-4 x0=1e-4 normamps=9999
New Line.2081301 Phases=3 Bus1=11920-6492035.1.2.3 Bus2=11920-6492035c.1.2.3 Switch=Y r1=1e-4 x1=1e-4 r0=1e-4 x0=1e-4 normamps=9999
New Line.2083465 Phases=3 Bus1=11942-6502639.1.2.3 Bus2=11942-6502639c.1.2.3 Switch=Y r1=1e-4 x1=1e-4 r0=1e-4 x0=1e-4 normamps=9999
New Line.2082989 Phases=1 Bus1=11924-6500408.2 Bus2=11924-6500408c.2 Switch=Y r1=1e-4 x1=1e-4 r0=1e-4 x0=1e-4 normamps=9999
New Line.2082982 Phases=1 Bus1=11924-6499212.2 Bus2=11924-6499212c.2 Switch=Y r1=1e-4 x1=1e-4 r0=1e-4 x0=1e-4 normamps=9999
New Line.2083236 Phases=1 Bus1=11924-6498052.1 Bus2=11924-6498052c.1 Switch=Y r1=1e-4 x1=1e-4 r0=1e-4 x0=1e-4 normamps=9999
New Line.2095928 Phases=3 Bus1=11958-6599444.1.2.3 Bus2=11958-6599444c.1.2.3 Switch=Y r1=1e-4 x1=1e-4 r0=1e-4 x0=1e-4 normamps=9999
New Line.2095975 Phases=1 Bus1=11958-6600611.3 Bus2=11958-6600611c.3 Switch=Y r1=1e-4 x1=1e-4 r0=1e-4 x0=1e-4 normamps=9999
New Line.2095808 Phases=3 Bus1=11958-6600044.1.2.3 Bus2=11958-6600044c.1.2.3 Switch=Y r1=1e-4 x1=1e-4 r0=1e-4 x0=1e-4 normamps=9999
New Line.3206305 Phases=3 Bus1=11958-6601306.1.2.3 Bus2=11958-6601306c.1.2.3 Switch=Y r1=1e-4 x1=1e-4 r0=1e-4 x0=1e-4 normamps=9999
New Line.3216482 Phases=3 Bus1=11958-6599683.1.2.3 Bus2=11958-6599683c.1.2.3 Switch=Y r1=1e-4 x1=1e-4 r0=1e-4 x0=1e-4 normamps=9999
New Line.2095860 Phases=3 Bus1=11958-6600827.1.2.3 Bus2=11958-6600827c.1.2.3 Switch=Y r1=1e-4 x1=1e-4 r0=1e-4 x0=1e-4 normamps=9999
New Line.2095809 Phases=3 Bus1=11958-6600831.1.2.3 Bus2=11958-6600831c.1.2.3 Switch=Y r1=1e-4 x1=1e-4 r0=1e-4 x0=1e-4 normamps=9999
New Line.3020277 Phases=1 Bus1=11958-6600878.3 Bus2=11958-6600878c.3 Switch=Y r1=1e-4 x1=1e-4 r0=1e-4 x0=1e-4 normamps=9999
New Line.2095389 Phases=1 Bus1=11958-6599862.2 Bus2=11958-6599862c.2 Switch=Y r1=1e-4 x1=1e-4 r0=1e-4 x0=1e-4 normamps=9999
New Line.2095820 Phases=3 Bus1=11958-6602395.1.2.3 Bus2=11958-6602395c.1.2.3 Switch=Y r1=1e-4 x1=1e-4 r0=1e-4 x0=1e-4 normamps=9999
New Line.2095972 Phases=1 Bus1=11958-6604154.1 Bus2=11958-6604154c.1 Switch=Y r1=1e-4 x1=1e-4 r0=1e-4 x0=1e-4 normamps=9999
New Line.2095980 Phases=1 Bus1=11958-6603210.3 Bus2=11958-6603210c.3 Switch=Y r1=1e-4 x1=1e-4 r0=1e-4 x0=1e-4 normamps=9999
New Line.2103813 Phases=1 Bus1=11972-6661767.2 Bus2=11972-6661767c.2 Switch=Y r1=1e-4 x1=1e-4 r0=1e-4 x0=1e-4 normamps=9999
New Line.2790020 Phases=3 Bus1=16114-10919261.1.2.3 Bus2=16114-10919261c.1.2.3 Switch=Y r1=1e-4 x1=1e-4 r0=1e-4 x0=1e-4 normamps=9999
New Line.2789870 Phases=1 Bus1=16114-10911802.2 Bus2=16114-10911802c.2 Switch=Y r1=1e-4 x1=1e-4 r0=1e-4 x0=1e-4 normamps=9999
New Line.2790149 Phases=1 Bus1=16114-10912876.2 Bus2=16114-10912876c.2 Switch=Y r1=1e-4 x1=1e-4 r0=1e-4 x0=1e-4 normamps=9999
New Line.2790306 Phases=3 Bus1=16114-10912177.1.2.3 Bus2=16114-10912177c.1.2.3 Switch=Y r1=1e-4 x1=1e-4 r0=1e-4 x0=1e-4 normamps=9999
New Line.2790190 Phases=1 Bus1=16114-10916923.3 Bus2=16114-10916923c.3 Switch=Y r1=1e-4 x1=1e-4 r0=1e-4 x0=1e-4 normamps=9999
New Line.2740519 Phases=1 Bus1=25449-10682935.3 Bus2=25449-10682935c.3 Switch=Y r1=1e-4 x1=1e-4 r0=1e-4 x0=1e-4 normamps=9999
New Line.2739944 Phases=1 Bus1=25449-10690556.1 Bus2=25449-10690556c.1 Switch=Y r1=1e-4 x1=1e-4 r0=1e-4 x0=1e-4 normamps=9999
New Line.2095794 Phases=3 Bus1=11958-7613840.1.2.3 Bus2=11958-7613840c.1.2.3 Switch=Y r1=1e-4 x1=1e-4 r0=1e-4 x0=1e-4 normamps=9999
New Line.2083213 Phases=1 Bus1=11924-7613814.2 Bus2=11924-7613814c.2 Switch=Y r1=1e-4 x1=1e-4 r0=1e-4 x0=1e-4 normamps=9999
New Line.2740893 Phases=1 Bus1=25449-10681494.2 Bus2=25449-10681494c.2 Switch=Y r1=1e-4 x1=1e-4 r0=1e-4 x0=1e-4 normamps=9999
New Line.2740713 Phases=1 Bus1=25449-10681524.3 Bus2=25449-10681524c.3 Switch=Y r1=1e-4 x1=1e-4 r0=1e-4 x0=1e-4 normamps=9999
New Line.2740156 Phases=1 Bus1=25449-10681779.2 Bus2=25449-10681779c.2 Switch=Y r1=1e-4 x1=1e-4 r0=1e-4 x0=1e-4 normamps=9999
New Line.2740465 Phases=1 Bus1=25449-10682253.3 Bus2=25449-10682253c.3 Switch=Y r1=1e-4 x1=1e-4 r0=1e-4 x0=1e-4 normamps=9999
New Line.2716350 Phases=1 Bus1=15682-10563176.3 Bus2=15682-10563176c.3 Switch=Y r1=1e-4 x1=1e-4 r0=1e-4 x0=1e-4 normamps=9999
New Line.2716037 Phases=1 Bus1=15682-10563191.3 Bus2=15682-10563191c.3 Switch=Y r1=1e-4 x1=1e-4 r0=1e-4 x0=1e-4 normamps=9999
New Line.2715916 Phases=1 Bus1=15682-10563917.1 Bus2=15682-10563917c.1 Switch=Y r1=1e-4 x1=1e-4 r0=1e-4 x0=1e-4 normamps=9999
New Line.2740966 Phases=1 Bus1=25449-10687338.1 Bus2=25449-10687338c.1 Switch=Y r1=1e-4 x1=1e-4 r0=1e-4 x0=1e-4 normamps=9999
New Line.2740728 Phases=1 Bus1=25449-10687251.3 Bus2=25449-10687251c.3 Switch=Y r1=1e-4 x1=1e-4 r0=1e-4 x0=1e-4 normamps=9999
New Line.2741086 Phases=1 Bus1=25449-10691862.1 Bus2=25449-10691862c.1 Switch=Y r1=1e-4 x1=1e-4 r0=1e-4 x0=1e-4 normamps=9999
New Line.2740606 Phases=1 Bus1=25449-10687709.3 Bus2=25449-10687709c.3 Switch=Y r1=1e-4 x1=1e-4 r0=1e-4 x0=1e-4 normamps=9999
New Line.2740525 Phases=1 Bus1=25449-10686230.1 Bus2=25449-10686230c.1 Switch=Y r1=1e-4 x1=1e-4 r0=1e-4 x0=1e-4 normamps=9999
New Line.2740913 Phases=1 Bus1=25449-10687117.2 Bus2=25449-10687117c.2 Switch=Y r1=1e-4 x1=1e-4 r0=1e-4 x0=1e-4 normamps=9999
New Line.2739954 Phases=3 Bus1=25449-10684469.1.2.3 Bus2=25449-10684469c.1.2.3 Switch=Y r1=1e-4 x1=1e-4 r0=1e-4 x0=1e-4 normamps=9999
New Line.2740750 Phases=1 Bus1=25449-10684494.1 Bus2=25449-10684494c.1 Switch=Y r1=1e-4 x1=1e-4 r0=1e-4 x0=1e-4 normamps=9999
New Line.2970638 Phases=1 Bus1=25449-10684961.3 Bus2=25449-10684961c.3 Switch=Y r1=1e-4 x1=1e-4 r0=1e-4 x0=1e-4 normamps=9999
New Line.2740401 Phases=3 Bus1=25449-10683462.1.2.3 Bus2=25449-10683462c.1.2.3 Switch=Y r1=1e-4 x1=1e-4 r0=1e-4 x0=1e-4 normamps=9999
New Line.2715897 Phases=1 Bus1=15682-10564921.1 Bus2=15682-10564921c.1 Switch=Y r1=1e-4 x1=1e-4 r0=1e-4 x0=1e-4 normamps=9999
New Line.2715918 Phases=1 Bus1=15682-10565052.2 Bus2=15682-10565052c.2 Switch=Y r1=1e-4 x1=1e-4 r0=1e-4 x0=1e-4 normamps=9999
New Line.2716434 Phases=1 Bus1=15682-10565425.2 Bus2=15682-10565425c.2 Switch=Y r1=1e-4 x1=1e-4 r0=1e-4 x0=1e-4 normamps=9999
New Line.2715997 Phases=3 Bus1=15682-10565448.1.2.3 Bus2=15682-10565448c.1.2.3 Switch=Y r1=1e-4 x1=1e-4 r0=1e-4 x0=1e-4 normamps=9999
New Line.3152777 Phases=1 Bus1=15682-10564793.1 Bus2=15682-10564793c.1 Switch=Y r1=1e-4 x1=1e-4 r0=1e-4 x0=1e-4 normamps=9999
New Line.2716260 Phases=3 Bus1=15682-10562091.1.2.3 Bus2=15682-10562091c.1.2.3 Switch=Y r1=1e-4 x1=1e-4 r0=1e-4 x0=1e-4 normamps=9999
New Line.2716086 Phases=3 Bus1=15682-10562104.1.2.3 Bus2=15682-10562104c.1.2.3 Switch=Y r1=1e-4 x1=1e-4 r0=1e-4 x0=1e-4 normamps=9999
New Line.2740530 Phases=1 Bus1=25449-10857912.2 Bus2=25449-10857912c.2 Switch=Y r1=1e-4 x1=1e-4 r0=1e-4 x0=1e-4 normamps=9999
New Line.2912011 Phases=1 Bus1=15682-11394589.3 Bus2=15682-11394589c.3 Switch=Y r1=1e-4 x1=1e-4 r0=1e-4 x0=1e-4 normamps=9999
New Line.2955303 Phases=3 Bus1=15682-11511222.1.2.3 Bus2=15682-11511222c.1.2.3 Switch=Y r1=1e-4 x1=1e-4 r0=1e-4 x0=1e-4 normamps=9999
New Line.2991645 Phases=1 Bus1=11920-11678976.2 Bus2=11920-11678976c.2 Switch=Y r1=1e-4 x1=1e-4 r0=1e-4 x0=1e-4 normamps=9999
New Line.3023948 Phases=3 Bus1=11924-11861957.1.2.3 Bus2=11924-11861957c.1.2.3 Switch=Y r1=1e-4 x1=1e-4 r0=1e-4 x0=1e-4 normamps=9999
New Line.3023792 Phases=3 Bus1=11924-11862097.1.2.3 Bus2=11924-11862097c.1.2.3 Switch=Y r1=1e-4 x1=1e-4 r0=1e-4 x0=1e-4 normamps=9999
New Line.3045025 Phases=1 Bus1=11972-11992196.1 Bus2=11972-11992196c.1 Switch=Y r1=1e-4 x1=1e-4 r0=1e-4 x0=1e-4 normamps=9999
New Line.3057066 Phases=1 Bus1=25449-12064143.2 Bus2=25449-12064143c.2 Switch=Y r1=1e-4 x1=1e-4 r0=1e-4 x0=1e-4 normamps=9999
New Line.3056545 Phases=1 Bus1=16114-12061618.2 Bus2=16114-12061618c.2 Switch=Y r1=1e-4 x1=1e-4 r0=1e-4 x0=1e-4 normamps=9999
New Line.3158861 Phases=2 Bus1=25449-12708509.1.2 Bus2=25449-12708509c.1.2 Switch=Y r1=1e-4 x1=1e-4 r0=1e-4 x0=1e-4 normamps=9999
New Line.3152316 Phases=3 Bus1=26842-12666881.1.2.3 Bus2=26842-12666881c.1.2.3 Switch=Y r1=1e-4 x1=1e-4 r0=1e-4 x0=1e-4 normamps=9999
New Line.3098030 Phases=3 Bus1=26842-12668350.1.2.3 Bus2=26842-12668350c.1.2.3 Switch=Y r1=1e-4 x1=1e-4 r0=1e-4 x0=1e-4 normamps=9999
New Line.3107354 Phases=1 Bus1=25449-12195035.1 Bus2=25449-12195035c.1 Switch=Y r1=1e-4 x1=1e-4 r0=1e-4 x0=1e-4 normamps=9999
New Line.3120372 Phases=1 Bus1=25449-12481452.1 Bus2=25449-12481452c.1 Switch=Y r1=1e-4 x1=1e-4 r0=1e-4 x0=1e-4 normamps=9999
New Line.3123314 Phases=2 Bus1=25449-12498551.1.2 Bus2=25449-12498551c.1.2 Switch=Y r1=1e-4 x1=1e-4 r0=1e-4 x0=1e-4 normamps=9999
New Line.3137306 Phases=1 Bus1=15682-12580532.1 Bus2=15682-12580532c.1 Switch=Y r1=1e-4 x1=1e-4 r0=1e-4 x0=1e-4 normamps=9999
New Line.3136468 Phases=1 Bus1=26842-12576553.1 Bus2=26842-12576553c.1 Switch=Y r1=1e-4 x1=1e-4 r0=1e-4 x0=1e-4 normamps=9999
New Line.3180911 Phases=1 Bus1=11972-12895773.1 Bus2=11972-12895773c.1 Switch=Y r1=1e-4 x1=1e-4 r0=1e-4 x0=1e-4 normamps=9999
New Line.2103599 Phases=3 Bus1=11972-6663113.1.2.3 Bus2=11972-6663113c.1.2.3 Switch=Y r1=1e-4 x1=1e-4 r0=1e-4 x0=1e-4 normamps=9999
New Line.2081049 Phases=3 Bus1=11920-6486511.1.2.3 Bus2=11920-6486511c.1.2.3 Switch=Y r1=1e-4 x1=1e-4 r0=1e-4 x0=1e-4 normamps=9999
New Line.2080934 Phases=1 Bus1=11920-6489283.2 Bus2=11920-6489283c.2 Switch=Y r1=1e-4 x1=1e-4 r0=1e-4 x0=1e-4 normamps=9999
New Line.2081164 Phases=1 Bus1=11920-6490682.1 Bus2=11920-6490682c.1 Switch=Y r1=1e-4 x1=1e-4 r0=1e-4 x0=1e-4 normamps=9999
New Line.2081134 Phases=1 Bus1=26842-6488134.2 Bus2=26842-6488134c.2 Switch=Y r1=1e-4 x1=1e-4 r0=1e-4 x0=1e-4 normamps=9999
New Line.2080944 Phases=1 Bus1=11920-6486036.1 Bus2=11920-6486036c.1 Switch=Y r1=1e-4 x1=1e-4 r0=1e-4 x0=1e-4 normamps=9999
New Line.2080715 Phases=1 Bus1=11920-6488356.1 Bus2=11920-6488356c.1 Switch=Y r1=1e-4 x1=1e-4 r0=1e-4 x0=1e-4 normamps=9999
New Line.2081041 Phases=1 Bus1=11920-6482144.2 Bus2=11920-6482144c.2 Switch=Y r1=1e-4 x1=1e-4 r0=1e-4 x0=1e-4 normamps=9999
New Line.2080604 Phases=3 Bus1=11919-6477849.1.2.3 Bus2=11919-6477849c.1.2.3 Switch=Y r1=1e-4 x1=1e-4 r0=1e-4 x0=1e-4 normamps=9999
New Line.2081121 Phases=3 Bus1=26842-6491554.1.2.3 Bus2=26842-6491554c.1.2.3 Switch=Y r1=1e-4 x1=1e-4 r0=1e-4 x0=1e-4 normamps=9999
New Line.2083001 Phases=3 Bus1=11924-6496814.1.2.3 Bus2=11924-6496814c.1.2.3 Switch=Y r1=1e-4 x1=1e-4 r0=1e-4 x0=1e-4 normamps=9999
New Line.2081201 Phases=1 Bus1=11920-6491413.1 Bus2=11920-6491413c.1 Switch=Y r1=1e-4 x1=1e-4 r0=1e-4 x0=1e-4 normamps=9999
New Line.2083193 Phases=3 Bus1=11924-6499104.1.2.3 Bus2=11924-6499104c.1.2.3 Switch=Y r1=1e-4 x1=1e-4 r0=1e-4 x0=1e-4 normamps=9999
New Line.2083212 Phases=1 Bus1=11924-6498516.3 Bus2=11924-6498516c.3 Switch=Y r1=1e-4 x1=1e-4 r0=1e-4 x0=1e-4 normamps=9999
New Line.2083111 Phases=1 Bus1=11924-6497878.2 Bus2=11924-6497878c.2 Switch=Y r1=1e-4 x1=1e-4 r0=1e-4 x0=1e-4 normamps=9999
New Line.2083204 Phases=1 Bus1=11924-6497910.3 Bus2=11924-6497910c.3 Switch=Y r1=1e-4 x1=1e-4 r0=1e-4 x0=1e-4 normamps=9999
New Line.2083356 Phases=3 Bus1=11942-6502741.1.2.3 Bus2=11942-6502741c.1.2.3 Switch=Y r1=1e-4 x1=1e-4 r0=1e-4 x0=1e-4 normamps=9999
New Line.2083238 Phases=1 Bus1=11924-6499270.3 Bus2=11924-6499270c.3 Switch=Y r1=1e-4 x1=1e-4 r0=1e-4 x0=1e-4 normamps=9999
New Line.2083378 Phases=1 Bus1=11942-6502845.1 Bus2=11942-6502845c.1 Switch=Y r1=1e-4 x1=1e-4 r0=1e-4 x0=1e-4 normamps=9999
New Line.2083116 Phases=1 Bus1=11924-6499454.2 Bus2=11924-6499454c.2 Switch=Y r1=1e-4 x1=1e-4 r0=1e-4 x0=1e-4 normamps=9999
New Line.2083188 Phases=1 Bus1=11924-6497044.3 Bus2=11924-6497044c.3 Switch=Y r1=1e-4 x1=1e-4 r0=1e-4 x0=1e-4 normamps=9999
New Line.2083000 Phases=3 Bus1=11924-6500067.1.2.3 Bus2=11924-6500067c.1.2.3 Switch=Y r1=1e-4 x1=1e-4 r0=1e-4 x0=1e-4 normamps=9999
New Line.2083352 Phases=1 Bus1=11942-6503052.2 Bus2=11942-6503052c.2 Switch=Y r1=1e-4 x1=1e-4 r0=1e-4 x0=1e-4 normamps=9999
New Line.2095920 Phases=3 Bus1=11958-6600363.1.2.3 Bus2=11958-6600363c.1.2.3 Switch=Y r1=1e-4 x1=1e-4 r0=1e-4 x0=1e-4 normamps=9999
New Line.2095779 Phases=1 Bus1=11958-6603871.2 Bus2=11958-6603871c.2 Switch=Y r1=1e-4 x1=1e-4 r0=1e-4 x0=1e-4 normamps=9999
New Line.2095824 Phases=1 Bus1=11958-6602992.3 Bus2=11958-6602992c.3 Switch=Y r1=1e-4 x1=1e-4 r0=1e-4 x0=1e-4 normamps=9999
New Line.2095993 Phases=1 Bus1=11958-6604126.2 Bus2=11958-6604126c.2 Switch=Y r1=1e-4 x1=1e-4 r0=1e-4 x0=1e-4 normamps=9999
New Line.2095772 Phases=1 Bus1=11958-6602512.3 Bus2=11958-6602512c.3 Switch=Y r1=1e-4 x1=1e-4 r0=1e-4 x0=1e-4 normamps=9999
New Line.2095828 Phases=3 Bus1=11958-6603609.1.2.3 Bus2=11958-6603609c.1.2.3 Switch=Y r1=1e-4 x1=1e-4 r0=1e-4 x0=1e-4 normamps=9999
New Line.2095969 Phases=1 Bus1=11958-6604782.2 Bus2=11958-6604782c.2 Switch=Y r1=1e-4 x1=1e-4 r0=1e-4 x0=1e-4 normamps=9999
New Line.2103592 Phases=1 Bus1=11972-6662318.3 Bus2=11972-6662318c.3 Switch=Y r1=1e-4 x1=1e-4 r0=1e-4 x0=1e-4 normamps=9999
New Line.2790055 Phases=3 Bus1=16114-10913480.1.2.3 Bus2=16114-10913480c.1.2.3 Switch=Y r1=1e-4 x1=1e-4 r0=1e-4 x0=1e-4 normamps=9999
New Line.2789943 Phases=1 Bus1=16114-10915553.2 Bus2=16114-10915553c.2 Switch=Y r1=1e-4 x1=1e-4 r0=1e-4 x0=1e-4 normamps=9999
New Line.2790150 Phases=1 Bus1=16114-10914379.2 Bus2=16114-10914379c.2 Switch=Y r1=1e-4 x1=1e-4 r0=1e-4 x0=1e-4 normamps=9999
New Line.2790223 Phases=1 Bus1=11945-10916141.3 Bus2=11945-10916141c.3 Switch=Y r1=1e-4 x1=1e-4 r0=1e-4 x0=1e-4 normamps=9999
New Line.2790177 Phases=1 Bus1=16114-10916145.3 Bus2=16114-10916145c.3 Switch=Y r1=1e-4 x1=1e-4 r0=1e-4 x0=1e-4 normamps=9999
New Line.2789914 Phases=1 Bus1=16114-10916034.1 Bus2=16114-10916034c.1 Switch=Y r1=1e-4 x1=1e-4 r0=1e-4 x0=1e-4 normamps=9999
New Line.2789949 Phases=1 Bus1=16114-10918540.2 Bus2=16114-10918540c.2 Switch=Y r1=1e-4 x1=1e-4 r0=1e-4 x0=1e-4 normamps=9999
New Line.2740257 Phases=1 Bus1=25449-10688397.1 Bus2=25449-10688397c.1 Switch=Y r1=1e-4 x1=1e-4 r0=1e-4 x0=1e-4 normamps=9999
New Line.2739905 Phases=1 Bus1=25449-10688502.2 Bus2=25449-10688502c.2 Switch=Y r1=1e-4 x1=1e-4 r0=1e-4 x0=1e-4 normamps=9999
New Line.2740365 Phases=1 Bus1=25449-10690454.2 Bus2=25449-10690454c.2 Switch=Y r1=1e-4 x1=1e-4 r0=1e-4 x0=1e-4 normamps=9999
New Line.2096000 Phases=1 Bus1=11958-7613834.2 Bus2=11958-7613834c.2 Switch=Y r1=1e-4 x1=1e-4 r0=1e-4 x0=1e-4 normamps=9999
New Line.2739801 Phases=1 Bus1=25449-10688949.2 Bus2=25449-10688949c.2 Switch=Y r1=1e-4 x1=1e-4 r0=1e-4 x0=1e-4 normamps=9999
New Line.2740752 Phases=1 Bus1=25449-10681775.1 Bus2=25449-10681775c.1 Switch=Y r1=1e-4 x1=1e-4 r0=1e-4 x0=1e-4 normamps=9999
New Line.2715901 Phases=1 Bus1=15682-10563844.3 Bus2=15682-10563844c.3 Switch=Y r1=1e-4 x1=1e-4 r0=1e-4 x0=1e-4 normamps=9999
New Line.2716069 Phases=1 Bus1=15682-10563424.3 Bus2=15682-10563424c.3 Switch=Y r1=1e-4 x1=1e-4 r0=1e-4 x0=1e-4 normamps=9999
New Line.3158924 Phases=1 Bus1=15682-10563918.1 Bus2=15682-10563918c.1 Switch=Y r1=1e-4 x1=1e-4 r0=1e-4 x0=1e-4 normamps=9999
New Line.2740988 Phases=1 Bus1=25449-10691568.3 Bus2=25449-10691568c.3 Switch=Y r1=1e-4 x1=1e-4 r0=1e-4 x0=1e-4 normamps=9999
New Line.2740651 Phases=1 Bus1=25449-10683681.1 Bus2=25449-10683681c.1 Switch=Y r1=1e-4 x1=1e-4 r0=1e-4 x0=1e-4 normamps=9999
New Line.2740231 Phases=1 Bus1=25449-10684517.1 Bus2=25449-10684517c.1 Switch=Y r1=1e-4 x1=1e-4 r0=1e-4 x0=1e-4 normamps=9999
New Line.2740314 Phases=1 Bus1=25449-10687032.2 Bus2=25449-10687032c.2 Switch=Y r1=1e-4 x1=1e-4 r0=1e-4 x0=1e-4 normamps=9999
New Line.2740320 Phases=3 Bus1=25449-10686654.1.2.3 Bus2=25449-10686654c.1.2.3 Switch=Y r1=1e-4 x1=1e-4 r0=1e-4 x0=1e-4 normamps=9999
New Line.2739800 Phases=1 Bus1=25449-10684038.2 Bus2=25449-10684038c.2 Switch=Y r1=1e-4 x1=1e-4 r0=1e-4 x0=1e-4 normamps=9999
New Line.2741053 Phases=1 Bus1=25449-10686328.1 Bus2=25449-10686328c.1 Switch=Y r1=1e-4 x1=1e-4 r0=1e-4 x0=1e-4 normamps=9999
New Line.2740414 Phases=1 Bus1=25449-10685190.2 Bus2=25449-10685190c.2 Switch=Y r1=1e-4 x1=1e-4 r0=1e-4 x0=1e-4 normamps=9999
New Line.2716202 Phases=1 Bus1=15682-10565875.3 Bus2=15682-10565875c.3 Switch=Y r1=1e-4 x1=1e-4 r0=1e-4 x0=1e-4 normamps=9999
New Line.2716029 Phases=1 Bus1=15682-10565711.3 Bus2=15682-10565711c.3 Switch=Y r1=1e-4 x1=1e-4 r0=1e-4 x0=1e-4 normamps=9999
New Line.2716030 Phases=1 Bus1=15682-10565123.1 Bus2=15682-10565123c.1 Switch=Y r1=1e-4 x1=1e-4 r0=1e-4 x0=1e-4 normamps=9999
New Line.2716441 Phases=3 Bus1=15682-10565183.1.2.3 Bus2=15682-10565183c.1.2.3 Switch=Y r1=1e-4 x1=1e-4 r0=1e-4 x0=1e-4 normamps=9999
New Line.2715914 Phases=3 Bus1=15682-10565523.1.2.3 Bus2=15682-10565523c.1.2.3 Switch=Y r1=1e-4 x1=1e-4 r0=1e-4 x0=1e-4 normamps=9999
New Line.2716337 Phases=1 Bus1=15682-10562214.2 Bus2=15682-10562214c.2 Switch=Y r1=1e-4 x1=1e-4 r0=1e-4 x0=1e-4 normamps=9999
New Line.2715951 Phases=3 Bus1=15682-10561704.1.2.3 Bus2=15682-10561704c.1.2.3 Switch=Y r1=1e-4 x1=1e-4 r0=1e-4 x0=1e-4 normamps=9999
New Line.2716043 Phases=3 Bus1=15682-10566853.1.2.3 Bus2=15682-10566853c.1.2.3 Switch=Y r1=1e-4 x1=1e-4 r0=1e-4 x0=1e-4 normamps=9999
New Line.2848510 Phases=1 Bus1=26842-11292139.2 Bus2=26842-11292139c.2 Switch=Y r1=1e-4 x1=1e-4 r0=1e-4 x0=1e-4 normamps=9999
New Line.2715972 Phases=1 Bus1=15682-11314206.3 Bus2=15682-11314206c.3 Switch=Y r1=1e-4 x1=1e-4 r0=1e-4 x0=1e-4 normamps=9999
New Line.2740817 Phases=3 Bus1=25449-11332666.1.2.3 Bus2=25449-11332666c.1.2.3 Switch=Y r1=1e-4 x1=1e-4 r0=1e-4 x0=1e-4 normamps=9999
New Line.2955304 Phases=3 Bus1=15682-11511208.1.2.3 Bus2=15682-11511208c.1.2.3 Switch=Y r1=1e-4 x1=1e-4 r0=1e-4 x0=1e-4 normamps=9999
New Line.2970637 Phases=3 Bus1=25449-11597573.1.2.3 Bus2=25449-11597573c.1.2.3 Switch=Y r1=1e-4 x1=1e-4 r0=1e-4 x0=1e-4 normamps=9999
New Line.2973188 Phases=3 Bus1=26842-11610439.1.2.3 Bus2=26842-11610439c.1.2.3 Switch=Y r1=1e-4 x1=1e-4 r0=1e-4 x0=1e-4 normamps=9999
New Line.2990532 Phases=1 Bus1=11958-11676121.1 Bus2=11958-11676121c.1 Switch=Y r1=1e-4 x1=1e-4 r0=1e-4 x0=1e-4 normamps=9999
New Line.3013851 Phases=1 Bus1=25449-11798641.2 Bus2=25449-11798641c.2 Switch=Y r1=1e-4 x1=1e-4 r0=1e-4 x0=1e-4 normamps=9999
New Line.3018786 Phases=3 Bus1=15682-11829013.1.2.3 Bus2=15682-11829013c.1.2.3 Switch=Y r1=1e-4 x1=1e-4 r0=1e-4 x0=1e-4 normamps=9999
New Line.3020037 Phases=1 Bus1=11958-11835887.2 Bus2=11958-11835887c.2 Switch=Y r1=1e-4 x1=1e-4 r0=1e-4 x0=1e-4 normamps=9999
New Line.3021499 Phases=1 Bus1=25449-11846545.1 Bus2=25449-11846545c.1 Switch=Y r1=1e-4 x1=1e-4 r0=1e-4 x0=1e-4 normamps=9999
New Line.3158104 Phases=1 Bus1=11924-12700779.3 Bus2=11924-12700779c.3 Switch=Y r1=1e-4 x1=1e-4 r0=1e-4 x0=1e-4 normamps=9999
New Line.3082273 Phases=3 Bus1=15682-12232441.1.2.3 Bus2=15682-12232441c.1.2.3 Switch=Y r1=1e-4 x1=1e-4 r0=1e-4 x0=1e-4 normamps=9999
New Line.3112715 Phases=3 Bus1=11972-12432248.1.2.3 Bus2=11972-12432248c.1.2.3 Switch=Y r1=1e-4 x1=1e-4 r0=1e-4 x0=1e-4 normamps=9999
New Line.3123203 Phases=1 Bus1=15682-12498077.3 Bus2=15682-12498077c.3 Switch=Y r1=1e-4 x1=1e-4 r0=1e-4 x0=1e-4 normamps=9999
New Line.3117309 Phases=1 Bus1=11972-12461982.1 Bus2=11972-12461982c.1 Switch=Y r1=1e-4 x1=1e-4 r0=1e-4 x0=1e-4 normamps=9999
New Line.3123311 Phases=2 Bus1=25449-12498518.1.2 Bus2=25449-12498518c.1.2 Switch=Y r1=1e-4 x1=1e-4 r0=1e-4 x0=1e-4 normamps=9999
New Line.3142604 Phases=1 Bus1=11972-12611078.2 Bus2=11972-12611078c.2 Switch=Y r1=1e-4 x1=1e-4 r0=1e-4 x0=1e-4 normamps=9999
New Line.3169439 Phases=1 Bus1=11958-12803196.2 Bus2=11958-12803196c.2 Switch=Y r1=1e-4 x1=1e-4 r0=1e-4 x0=1e-4 normamps=9999
New Line.3184614 Phases=1 Bus1=11972-12926436.2 Bus2=11972-12926436c.2 Switch=Y r1=1e-4 x1=1e-4 r0=1e-4 x0=1e-4 normamps=9999
New Line.3194390 Phases=1 Bus1=15682-13044975.1 Bus2=15682-13044975c.1 Switch=Y r1=1e-4 x1=1e-4 r0=1e-4 x0=1e-4 normamps=9999
New Line.3203894 Phases=1 Bus1=16114-13117096.1 Bus2=16114-13117096c.1 Switch=Y r1=1e-4 x1=1e-4 r0=1e-4 x0=1e-4 normamps=9999
New Line.3216584 Phases=1 Bus1=25449-13234606.2 Bus2=25449-13234606c.2 Switch=Y r1=1e-4 x1=1e-4 r0=1e-4 x0=1e-4 normamps=9999
New Line.2103880 Phases=3 Bus1=11972-6663184.1.2.3 Bus2=11972-6663184c.1.2.3 Switch=Y r1=1e-4 x1=1e-4 r0=1e-4 x0=1e-4 normamps=9999
New Line.2103765 Phases=1 Bus1=11972-6663302.2 Bus2=11972-6663302c.2 Switch=Y r1=1e-4 x1=1e-4 r0=1e-4 x0=1e-4 normamps=9999
New Line.2103848 Phases=1 Bus1=11972-6663687.3 Bus2=11972-6663687c.3 Switch=Y r1=1e-4 x1=1e-4 r0=1e-4 x0=1e-4 normamps=9999
New Line.2739977 Phases=1 Bus1=25449-10690198.3 Bus2=25449-10690198c.3 Switch=Y r1=1e-4 x1=1e-4 r0=1e-4 x0=1e-4 normamps=9999
New Line.2740228 Phases=1 Bus1=25449-10682370.1 Bus2=25449-10682370c.1 Switch=Y r1=1e-4 x1=1e-4 r0=1e-4 x0=1e-4 normamps=9999
New Line.2081025 Phases=1 Bus1=11920-6485320.2 Bus2=11920-6485320c.2 Switch=Y r1=1e-4 x1=1e-4 r0=1e-4 x0=1e-4 normamps=9999
New Line.2080613 Phases=3 Bus1=11945-6477354.1.2.3 Bus2=11945-6477354c.1.2.3 Switch=Y r1=1e-4 x1=1e-4 r0=1e-4 x0=1e-4 normamps=9999
New Line.2080577 Phases=3 Bus1=11945-6477401.1.2.3 Bus2=11945-6477401c.1.2.3 Switch=Y r1=1e-4 x1=1e-4 r0=1e-4 x0=1e-4 normamps=9999
New Line.2081074 Phases=1 Bus1=26842-6485407.2 Bus2=26842-6485407c.2 Switch=Y r1=1e-4 x1=1e-4 r0=1e-4 x0=1e-4 normamps=9999
New Line.2081263 Phases=3 Bus1=11920-6488020.1.2.3 Bus2=11920-6488020c.1.2.3 Switch=Y r1=1e-4 x1=1e-4 r0=1e-4 x0=1e-4 normamps=9999
New Line.2928126 Phases=3 Bus1=11919-6478338.1.2.3 Bus2=11919-6478338c.1.2.3 Switch=Y r1=1e-4 x1=1e-4 r0=1e-4 x0=1e-4 normamps=9999
New Line.2081203 Phases=3 Bus1=11920-6483931.1.2.3 Bus2=11920-6483931c.1.2.3 Switch=Y r1=1e-4 x1=1e-4 r0=1e-4 x0=1e-4 normamps=9999
New Line.2080689 Phases=3 Bus1=26842-6483941.1.2.3 Bus2=26842-6483941c.1.2.3 Switch=Y r1=1e-4 x1=1e-4 r0=1e-4 x0=1e-4 normamps=9999
New Line.2081189 Phases=1 Bus1=11920-6482294.1 Bus2=11920-6482294c.1 Switch=Y r1=1e-4 x1=1e-4 r0=1e-4 x0=1e-4 normamps=9999
New Line.2081085 Phases=1 Bus1=26842-6486254.3 Bus2=26842-6486254c.3 Switch=Y r1=1e-4 x1=1e-4 r0=1e-4 x0=1e-4 normamps=9999
New Line.2081168 Phases=1 Bus1=11920-6486307.3 Bus2=11920-6486307c.3 Switch=Y r1=1e-4 x1=1e-4 r0=1e-4 x0=1e-4 normamps=9999
New Line.2080530 Phases=3 Bus1=11919-6477213.1.2.3 Bus2=11919-6477213c.1.2.3 Switch=Y r1=1e-4 x1=1e-4 r0=1e-4 x0=1e-4 normamps=9999
New Line.2081073 Phases=3 Bus1=26842-6489752.1.2.3 Bus2=26842-6489752c.1.2.3 Switch=Y r1=1e-4 x1=1e-4 r0=1e-4 x0=1e-4 normamps=9999
New Line.3008994 Phases=3 Bus1=11920-11771558.1.2.3 Bus2=11920-11771558c.1.2.3 Switch=Y r1=1e-4 x1=1e-4 r0=1e-4 x0=1e-4 normamps=9999
New Line.2081200 Phases=1 Bus1=11920-6492257.1 Bus2=11920-6492257c.1 Switch=Y r1=1e-4 x1=1e-4 r0=1e-4 x0=1e-4 normamps=9999
New Line.2082971 Phases=1 Bus1=11924-6499081.3 Bus2=11924-6499081c.3 Switch=Y r1=1e-4 x1=1e-4 r0=1e-4 x0=1e-4 normamps=9999
New Line.2083014 Phases=1 Bus1=11924-6500292.3 Bus2=11924-6500292c.3 Switch=Y r1=1e-4 x1=1e-4 r0=1e-4 x0=1e-4 normamps=9999
New Line.2083332 Phases=3 Bus1=11942-6501414.1.2.3 Bus2=11942-6501414c.1.2.3 Switch=Y r1=1e-4 x1=1e-4 r0=1e-4 x0=1e-4 normamps=9999
New Line.2083339 Phases=3 Bus1=11942-6501416.1.2.3 Bus2=11942-6501416c.1.2.3 Switch=Y r1=1e-4 x1=1e-4 r0=1e-4 x0=1e-4 normamps=9999
New Line.3165696 Phases=1 Bus1=11942-6502627.2 Bus2=11942-6502627c.2 Switch=Y r1=1e-4 x1=1e-4 r0=1e-4 x0=1e-4 normamps=9999
New Line.3082179 Phases=3 Bus1=11924-6500297.1.2.3 Bus2=11924-6500297c.1.2.3 Switch=Y r1=1e-4 x1=1e-4 r0=1e-4 x0=1e-4 normamps=9999
New Line.2083252 Phases=1 Bus1=11924-6496862.3 Bus2=11924-6496862c.3 Switch=Y r1=1e-4 x1=1e-4 r0=1e-4 x0=1e-4 normamps=9999
New Line.2082983 Phases=1 Bus1=11924-6498722.3 Bus2=11924-6498722c.3 Switch=Y r1=1e-4 x1=1e-4 r0=1e-4 x0=1e-4 normamps=9999
New Line.2082959 Phases=1 Bus1=11924-6498162.1 Bus2=11924-6498162c.1 Switch=Y r1=1e-4 x1=1e-4 r0=1e-4 x0=1e-4 normamps=9999
New Line.2083008 Phases=1 Bus1=11924-6498365.3 Bus2=11924-6498365c.3 Switch=Y r1=1e-4 x1=1e-4 r0=1e-4 x0=1e-4 normamps=9999
New Line.2941479 Phases=3 Bus1=16114-10911519.1.2.3 Bus2=16114-10911519c.1.2.3 Switch=Y r1=1e-4 x1=1e-4 r0=1e-4 x0=1e-4 normamps=9999
New Line.2103917 Phases=1 Bus1=11972-6661631.1 Bus2=11972-6661631c.1 Switch=Y r1=1e-4 x1=1e-4 r0=1e-4 x0=1e-4 normamps=9999
New Line.3172018 Phases=2 Bus1=11958-6600509.1.2 Bus2=11958-6600509c.1.2 Switch=Y r1=1e-4 x1=1e-4 r0=1e-4 x0=1e-4 normamps=9999
New Line.3038763 Phases=3 Bus1=11958-6602931.1.2.3 Bus2=11958-6602931c.1.2.3 Switch=Y r1=1e-4 x1=1e-4 r0=1e-4 x0=1e-4 normamps=9999
New Line.3090770 Phases=3 Bus1=11958-6603690.1.2.3 Bus2=11958-6603690c.1.2.3 Switch=Y r1=1e-4 x1=1e-4 r0=1e-4 x0=1e-4 normamps=9999
New Line.3112765 Phases=3 Bus1=11972-6661666.1.2.3 Bus2=11972-6661666c.1.2.3 Switch=Y r1=1e-4 x1=1e-4 r0=1e-4 x0=1e-4 normamps=9999
New Line.2103786 Phases=1 Bus1=11972-6661803.2 Bus2=11972-6661803c.2 Switch=Y r1=1e-4 x1=1e-4 r0=1e-4 x0=1e-4 normamps=9999
...
